Test_systems/68-bus system/case68_dyn.m
function dyn = case68_dyn
%% CASE68: Dynamic data for 68 bus, 16 generator case.
%
% This is the data file for the 68-Bus Benchmark system with 16-machines
% and 86-lines. The data is partially taken from [1] with some of the 
% parameters modified to account for a more realistic model [2]. This
% MATPOWER based data has been prepared by Sebastian Martinez from Prof. 
% Pulgar's research team at the University of Tennessee, Knoxville.
% 
% Last update: July, 2023.
%
%   References:
%   [1] Pal, Bikash, and Balarko Chaudhuri. Robust control in power 
%       systems. Springer Science & Business Media, 2006.
%   [2] Singh, A. K. and Pal, B. C. (2013) Report on the 68-bus, 
%       16-machine, 5-area system. Technical Report. IEEE Power and 
%       Energy Society Task Force on Benchmark Systems for Stability 
%       Controls.

%% Bus Data
% Bus   exp_P   exp_Q  
dyn.bus = [
   1     2       2;
   2     2       2;
   3     2       2;
   4     2       2;
   5     2       2;
   6     2       2;
   7     2       2;
   8     2       2;
   9     2       2;
  10     2       2;
  11     2       2;
  12     2       2;
  13     2       2;
  14     2       2;
  15     2       2;
  16     2       2;
  17     2       2;
  18     2       2;
  19     2       2;
  20     2       2;
  21     2       2;
  22     2       2;
  23     2       2;
  24     2       2;
  25     2       2;
  26     2       2;
  27     2       2;
  28     2       2;
  29     2       2;
  30     2       2;
  31     2       2;
  32     2       2;
  33     2       2;
  34     2       2;
  35     2       2;
  36     2       2;
  37     2       2;
  38     2       2;
  39     2       2;
  40     2       2;
  41     2       2;
  42     2       2;
  43     2       2;
  44     2       2;
  45     2       2;
  46     2       2;
  47     2       2;
  48     2       2;
  49     2       2;
  50     2       2;
  51     2       2;
  52     2       2;
  53     2       2;
  54     2       2;
  55     2       2;
  56     2       2;
  57     2       2;
  58     2       2;
  59     2       2;
  60     2       2;
  61     2       2;
  62     2       2;
  63     2       2;
  64     2       2;
  65     2       2;
  66     2       2;
  67     2       2;
  68     2       2;
];

%% Generator Data
% Bus   type   H(s)    Rs(pu)   Xd(pu)   Xd'(pu)  Xq(pu)  Xq'(pu)    Td0'(s)   Tq0'(s)    D(s)
dyn.gen = [     
  1      2      42.0    0.000    0.1000   0.0310   0.0690  0.0416667  10.20      1.50     84.00;
  2      2      30.2    0.000    0.2950   0.0697   0.2820  0.0933333   6.56      1.50     60.40;
  3      2      35.8    0.000    0.2495   0.0531   0.2370  0.0714286   5.70      1.50     71.60;
  4      2      28.6    0.000    0.2620   0.0436   0.2580  0.0585714   5.69      1.50     57.20;
  5      2      26.0    0.000    0.6700   0.1320   0.620   0.1660      5.40      0.44     52.00; 
  6      2      34.8    0.000    0.2540   0.0500   0.2410  0.0675000   7.30      0.40     69.60;
  7      2      26.4    0.000    0.2950   0.0490   0.2920  0.0666667   5.66      1.50     52.80;
  8      2      24.3    0.000    0.2900   0.0570   0.2800  0.0766667   6.70      0.41     48.60;
  9      2      34.5    0.000    0.2106   0.0570   0.2050  0.0766667   4.79      1.96     69.00;
  10     2      31.0    0.000    0.1690   0.0457   0.1150  0.0615385   9.37      1.50     62.00;
  11     2      28.2    0.000    0.1280   0.0180   0.1230  0.0241176   4.10      1.50     56.40;
  12     2      92.3    0.000    0.1010   0.0310   0.0950  0.0420000   7.40      1.50     184.6;
  13     2      248.0   0.000    0.0296   0.0055   0.0286  0.0074000   5.90      1.50     496.0;
  14     2      300.0   0.000    0.0180   0.00285  0.0173  0.0037931   4.10      1.50     600.0;
  15     2      300.0   0.000    0.0180   0.00285  0.0173  0.0037931   4.10      1.50     600.0;
  16     2      225.0   0.000    0.0356   0.0071   0.0334  0.0095000   7.80      1.50     450.0;
];
  
%% AVR Data 
% Bus   Type    KA     TA(s)   KE       TE(s)   KF      TF(s)   TB(s)   TR(s)   TC(s)   Vmin    Vmax    Vrmin   Vrmax   Kc
dyn.avr = [ 
  1     2       20.00  0.20    1.0000   0.314   0.0630   0.35   0.00    0.00    0.00    0.00    0.00    -10.00  10.00   0.00;
  2     2       20.00  0.20    1.0000   0.314   0.0630   0.35   0.00    0.00    0.00    0.00    0.00    -10.00  10.00   0.00;
  3     2       20.00  0.20    1.0000   0.314   0.0630   0.35   0.00    0.00    0.00    0.00    0.00    -10.00  10.00   0.00;
  4     2       20.00  0.20    1.0000   0.314   0.0630   0.35   0.00    0.00    0.00    0.00    0.00    -10.00  10.00   0.00;
  5     2       20.00  0.20    1.0000   0.314   0.0630   0.35   0.00    0.00    0.00    0.00    0.00    -10.00  10.00   0.00;
  6     2       20.00  0.20    1.0000   0.314   0.0630   0.35   0.00    0.00    0.00    0.00    0.00    -10.00  10.00   0.00;
  7     2       20.00  0.20    1.0000   0.314   0.0630   0.35   0.00    0.00    0.00    0.00    0.00    -10.00  10.00   0.00;
  8     2       20.00  0.20    1.0000   0.314   0.0630   0.35   0.00    0.00    0.00    0.00    0.00    -10.00  10.00   0.00;
  9     2       20.00  0.20    1.0000   0.314   0.0630   0.35   0.00    0.00    0.00    0.00    0.00    -10.00  10.00   0.00;
  10    2       20.00  0.20    1.0000   0.314   0.0630   0.35   0.00    0.00    0.00    0.00    0.00    -10.00  10.00   0.00;
  11    2       20.00  0.20    1.0000   0.314   0.0630   0.35   0.00    0.00    0.00    0.00    0.00    -10.00  10.00   0.00;
  12    2       20.00  0.20    1.0000   0.314   0.0630   0.35   0.00    0.00    0.00    0.00    0.00    -10.00  10.00   0.00;
  13    2       20.00  0.20    1.0000   0.314   0.0630   0.35   0.00    0.00    0.00    0.00    0.00    -10.00  10.00   0.00;
  14    2       20.00  0.20    1.0000   0.314   0.0630   0.35   0.00    0.00    0.00    0.00    0.00    -10.00  10.00   0.00;
  15    2       20.00  0.20    1.0000   0.314   0.0630   0.35   0.00    0.00    0.00    0.00    0.00    -10.00  10.00   0.00;
  16    2       20.00  0.20    1.0000   0.314   0.0630   0.35   0.00    0.00    0.00    0.00    0.00    -10.00  10.00   0.00;
  ];


%% Turbine/Governor Data
% Bus   Type    T1     T2     T3      T4     K1     Dt      Pmin    Pmax    At      Kt
dyn.gov = [
  1     2       0.30   5.00   12.00   0.10   30.00  0.00    0.00    100.00  0.00    0.00;
  2     2       0.30   5.00   12.00   0.10   30.00  0.00    0.00    100.00  0.00    0.00;
  3     2       0.30   5.00   12.00   0.10   30.00  0.00    0.00    100.00  0.00    0.00;
  4     2       0.30   5.00   12.00   0.10   30.00  0.00    0.00    100.00  0.00    0.00;
  5     2       0.30   5.00   12.00   0.10   30.00  0.00    0.00    100.00  0.00    0.00;
  6     2       0.30   5.00   12.00   0.10   30.00  0.00    0.00    100.00  0.00    0.00;
  7     2       0.30   5.00   12.00   0.10   30.00  0.00    0.00    100.00  0.00    0.00;
  8     2       0.30   5.00   12.00   0.10   30.00  0.00    0.00    100.00  0.00    0.00;
  9     2       0.30   5.00   12.00   0.10   30.00  0.00    0.00    100.00  0.00    0.00;
  10    2       0.30   5.00   12.00   0.10   30.00  0.00    0.00    100.00  0.00    0.00;
  11    2       0.30   5.00   12.00   0.10   30.00  0.00    0.00    100.00  0.00    0.00;
  12    2       0.30   5.00   12.00   0.10   30.00  0.00    0.00    100.00  0.00    0.00;
  13    2       0.30   5.00   12.00   0.10   30.00  0.00    0.00    100.00  0.00    0.00;
  14    2       0.30   5.00   12.00   0.10   30.00  0.00    0.00    100.00  0.00    0.00;
  15    2       0.30   5.00   12.00   0.10   30.00  0.00    0.00    100.00  0.00    0.00;
  16    2       0.30   5.00   12.00   0.10   30.00  0.00    0.00    100.00  0.00    0.00;
  ];

%% IBR Data
% Bus    Type    TQ    TD     Rf      Xf    Teq    Ted 
dyn.ibr = [
   5     1       0.01  0.01   0.0040  0.05  0.01   0.01;
  16     1       0.01  0.01   0.0040  0.05  0.01   0.01;
  26     1       0.01  0.01   0.0040  0.05  0.01   0.01;
];

%% IBR Data
% Bus   Type   Kiq   TGqv    Kip     TGpv    Qmax    Qmin    Pmax   Pmin     Tr      Rq      Ki      Kp      Tfrq    Rp
dyn.control = [
   5    1      5     0.01    5       0.01    1.00    -1.00   1.00   0        0.02    0.00    20      4       0.01    0.05;
  16    1      5     0.01    5       0.01    3.00    -2.00   1.00   0        0.02    0.00    20      4       0.01    0.05;
  26    1      5     0.01    5       0.01    1.00    -1.00   1.00   0        0.02    0.00    20      4       0.01    0.05;
];

%% PMU Data
for i=1:1:68
    dyn.pmu(i,1) = i;
    dyn.pmu(i,2) = 0.1;
end


end